6
Coordinates from ORCA-job CH3OH_OPT E -115.701627453840
  C       1.087307     -0.037125     -0.000935
  O       2.490577     -0.017751     -0.023916
  H       0.654713      0.735530     -0.631177
  H       0.690788      0.072151      1.005084
  H       0.774958     -0.998525     -0.383833
  H       2.797948      0.815570      0.309417
