6
Coordinates from ORCA-job CH3OH_OPT E -115.700176930438
  C       1.026340     -0.093020     -0.012100
  O       2.442060     -0.102890     -0.016240
  H       0.664830      0.724840     -0.640230
  H       0.664830      0.032140      1.011510
  H       0.663250     -1.043330     -0.410630
  H       2.734980      0.752110      0.342330
6
Coordinates from ORCA-job CH3OH_OPT E -115.701439596418
  C       1.030110     -0.082504     -0.007705
  O       2.442360     -0.098720     -0.014519
  H       0.646544      0.717271     -0.634410
  H       0.646625      0.031030      1.002020
  H       0.688353     -1.027071     -0.403802
  H       2.742298      0.729843      0.333056
6
Coordinates from ORCA-job CH3OH_OPT E -115.701585193961
  C       1.031819     -0.078452     -0.006030
  O       2.440357     -0.098553     -0.014527
  H       0.636290      0.715065     -0.632518
  H       0.636482      0.030909      0.999105
  H       0.696677     -1.024623     -0.402750
  H       2.754664      0.725505      0.331360
6
Coordinates from ORCA-job CH3OH_OPT E -115.701625256305
  C       1.033532     -0.076603     -0.005277
  O       2.438095     -0.097785     -0.014303
  H       0.629879      0.714281     -0.631431
  H       0.630174      0.031215      0.997774
  H       0.700553     -1.024900     -0.402836
  H       2.764057      0.723640      0.330713
6
Coordinates from ORCA-job CH3OH_OPT E -115.701627148054
  C       1.033956     -0.076999     -0.005451
  O       2.437721     -0.097308     -0.014147
  H       0.629761      0.714242     -0.631282
  H       0.630090      0.031324      0.997638
  H       0.700014     -1.025184     -0.402941
  H       2.764749      0.723776      0.330823
6
Coordinates from ORCA-job CH3OH_OPT E -115.701627471842
  C       1.034196     -0.077377     -0.005620
  O       2.437642     -0.097027     -0.014082
  H       0.629988      0.714196     -0.631196
  H       0.630358      0.031388      0.997541
  H       0.699412     -1.025288     -0.402967
  H       2.764694      0.723958      0.330963
